
 OpenBabel10112211363D

 43 45  0  0  1  0  0  0  0  0999 V2000
    5.5542    0.6681   -0.8376 H   0  0  0  0  0  0  0  0  0  0  0  0
    6.1370   -0.0182   -1.2457 O   0  0  0  0  0  0  0  0  0  0  0  0
    6.8318   -0.7351   -0.2344 C   0  0  3  0  0  0  0  0  0  0  0  0
    6.8107   -1.7933   -0.5177 H   0  0  0  0  0  0  0  0  0  0  0  0
    6.3385   -0.5739    1.2057 C   0  0  3  0  0  0  0  0  0  0  0  0
    8.2767   -0.2168   -0.1059 C   0  0  3  0  0  0  0  0  0  0  0  0
    6.6352   -1.4736    1.7579 H   0  0  0  0  0  0  0  0  0  0  0  0
    7.1422    0.4507    1.7762 O   0  0  0  0  0  0  0  0  0  0  0  0
    4.8687   -0.3480    1.5186 C   0  0  0  0  0  0  0  0  0  0  0  0
    8.7319    0.0681   -1.0580 H   0  0  0  0  0  0  0  0  0  0  0  0
    9.0891   -1.2601    0.4968 O   0  0  0  0  0  0  0  0  0  0  0  0
    8.0734    0.9754    0.8428 C   0  0  3  0  0  0  0  0  0  0  0  0
    4.6929   -0.2945    2.9301 O   0  0  0  0  0  0  0  0  0  0  0  0
    4.4162    0.4957    1.0191 H   0  0  0  0  0  0  0  0  0  0  0  0
    4.3061   -1.2208    1.1680 H   0  0  0  0  0  0  0  0  0  0  0  0
    4.7655    1.0972    3.7958 P   0  0  3  0  0  0  0  0  0  0  0  0
    3.6558    1.9889    3.0924 O   0  0  0  0  0  0  0  0  0  0  0  0
    6.1522    1.6912    3.7777 O   0  0  0  0  0  0  0  0  0  0  0  0
    4.2679    0.6725    5.1772 O   0  5  0  0  0  0  0  0  0  0  0  0
    3.6900    3.0810    1.9125 P   0  0  3  0  0  0  0  0  0  0  0  0
    2.1028    2.9609    1.4781 O   0  0  0  0  0  0  0  0  0  0  0  0
    3.9799    4.4441    2.5262 O   0  0  0  0  0  0  0  0  0  0  0  0
    4.6135    2.6032    0.7913 O   0  5  0  0  0  0  0  0  0  0  0  0
    1.7811    3.8147    0.0082 P   0  0  0  0  0  0  0  0  0  0  0  0
    1.4933    4.5788   -1.3073 O   0  0  0  0  0  0  0  0  0  0  0  0
    1.3298    2.4398   -0.5847 O   0  5  0  0  0  0  0  0  0  0  0  0
    0.6916    4.6026    0.8029 O   0  5  0  0  0  0  0  0  0  0  0  0
    8.8703   -1.2353    1.4516 H   0  0  0  0  0  0  0  0  0  0  0  0
    7.6497    1.8484    0.3332 H   0  0  0  0  0  0  0  0  0  0  0  0
    9.2301    1.4067    1.6050 N   0  0  0  0  0  0  0  0  0  0  0  0
    9.2855    1.5347    2.9789 C   0  0  0  0  0  0  0  0  0  0  0  0
   10.4678    1.7459    1.1291 C   0  0  0  0  0  0  0  0  0  0  0  0
    8.4193    1.3576    3.6102 H   0  0  0  0  0  0  0  0  0  0  0  0
   10.4864    1.8800    3.4083 N   0  0  0  0  0  0  0  0  0  0  0  0
   10.9122    1.7625   -0.1417 N   0  0  0  0  0  0  0  0  0  0  0  0
   11.2067    2.0572    2.2586 C   0  0  0  0  0  0  0  0  0  0  0  0
   12.2098    2.1294   -0.1891 C   0  0  0  0  0  0  0  0  0  0  0  0
   12.5435    2.4423    2.0746 C   0  0  0  0  0  0  0  0  0  0  0  0
   12.6437    2.1664   -1.1835 H   0  0  0  0  0  0  0  0  0  0  0  0
   13.0534    2.4510    0.8233 N   0  0  0  0  0  0  0  0  0  0  0  0
   13.3717    2.7795    3.1503 N   0  0  0  0  0  0  0  0  0  0  0  0
   14.3277    2.5338    2.9564 H   0  0  0  0  0  0  0  0  0  0  0  0
   12.9647    2.4660    4.0130 H   0  0  0  0  0  0  0  0  0  0  0  0
  2  1  1  0  0  0  0
  3  2  1  0  0  0  0
  3  6  1  0  0  0  0
  3  4  1  0  0  0  0
  5  8  1  0  0  0  0
  5  3  1  0  0  0  0
  5  7  1  0  0  0  0
  6 11  1  0  0  0  0
  6 12  1  0  0  0  0
  6 10  1  0  0  0  0
  8 12  1  0  0  0  0
  9  5  1  0  0  0  0
  9 14  1  0  0  0  0
  9 15  1  0  0  0  0
 11 28  1  0  0  0  0
 12 30  1  0  0  0  0
 12 29  1  0  0  0  0
 13  9  1  0  0  0  0
 16 19  1  0  0  0  0
 16 17  1  0  0  0  0
 16 13  1  0  0  0  0
 17 20  1  0  0  0  0
 18 16  2  0  0  0  0
 20 23  1  0  0  0  0
 20 21  1  0  0  0  0
 20 22  2  0  0  0  0
 21 24  1  0  0  0  0
 24 26  1  0  0  0  0
 24 27  1  0  0  0  0
 24 25  2  0  0  0  0
 30 32  1  0  0  0  0
 30 31  1  0  0  0  0
 31 33  1  0  0  0  0
 32 35  2  0  0  0  0
 32 36  1  0  0  0  0
 34 31  2  0  0  0  0
 35 37  1  0  0  0  0
 36 34  1  0  0  0  0
 37 40  2  0  0  0  0
 37 39  1  0  0  0  0
 38 41  1  0  0  0  0
 38 36  2  0  0  0  0
 40 38  1  0  0  0  0
 41 42  1  0  0  0  0
 41 43  1  0  0  0  0
M  CHG  4  19  -1  23  -1  26  -1  27  -1
M  END
$$$$
