
 OpenBabel10112211363D

 42 44  0  0  1  0  0  0  0  0999 V2000
    5.9657    2.3114    1.9235 H   0  0  0  0  0  0  0  0  0  0  0  0
    6.3081    3.0443    1.3300 O   0  0  0  0  0  0  0  0  0  0  0  0
    6.9349    2.4981    0.2039 C   0  0  3  0  0  0  0  0  0  0  0  0
    7.0535    3.3327   -0.4939 H   0  0  0  0  0  0  0  0  0  0  0  0
    6.2903    1.3148   -0.5156 C   0  0  3  0  0  0  0  0  0  0  0  0
    8.2711    1.9622    0.6230 C   0  0  0  0  0  0  0  0  0  0  0  0
    6.5245    1.4351   -1.5822 H   0  0  0  0  0  0  0  0  0  0  0  0
    6.9996    0.1059   -0.1466 O   0  0  0  0  0  0  0  0  0  0  0  0
    4.7792    1.1914   -0.3951 C   0  0  0  0  0  0  0  0  0  0  0  0
    8.9751    2.1589   -0.1935 H   0  0  0  0  0  0  0  0  0  0  0  0
    8.6649    2.4132    1.5405 H   0  0  0  0  0  0  0  0  0  0  0  0
    8.0356    0.4698    0.7931 C   0  0  3  0  0  0  0  0  0  0  0  0
    4.1780    2.3945   -0.8477 O   0  0  0  0  0  0  0  0  0  0  0  0
    4.4322    0.3642   -1.0237 H   0  0  0  0  0  0  0  0  0  0  0  0
    4.4956    0.9609    0.6248 H   0  0  0  0  0  0  0  0  0  0  0  0
    2.4527    2.3372   -0.9613 P   0  0  3  0  0  0  0  0  0  0  0  0
    2.4487    2.8334    0.6134 O   0  0  0  0  0  0  0  0  0  0  0  0
    0.9085    2.2859   -1.0631 O   0  0  0  0  0  0  0  0  0  0  0  0
    2.6145    3.5318   -1.9520 O   0  5  0  0  0  0  0  0  0  0  0  0
    2.1830    1.8206    1.8809 P   0  0  3  0  0  0  0  0  0  0  0  0
    3.3425    2.3240    2.8767 O   0  0  0  0  0  0  0  0  0  0  0  0
    0.8305    2.1966    2.4957 O   0  0  0  0  0  0  0  0  0  0  0  0
    2.3561    0.3846    1.3990 O   0  5  0  0  0  0  0  0  0  0  0  0
    4.5818    1.8039    3.7655 P   0  0  0  0  0  0  0  0  0  0  0  0
    5.2393    3.0768    4.3045 O   0  0  0  0  0  0  0  0  0  0  0  0
    4.0622    0.9258    4.9010 O   0  5  0  0  0  0  0  0  0  0  0  0
    5.5560    1.0932    2.8135 O   0  5  0  0  0  0  0  0  0  0  0  0
    7.7272    0.1889    1.8054 H   0  0  0  0  0  0  0  0  0  0  0  0
    9.2200   -0.3354    0.4766 N   0  0  0  0  0  0  0  0  0  0  0  0
    9.1955   -1.6173   -0.0301 C   0  0  0  0  0  0  0  0  0  0  0  0
   10.5419    0.0334    0.5412 C   0  0  0  0  0  0  0  0  0  0  0  0
    8.2586   -2.1438   -0.1780 H   0  0  0  0  0  0  0  0  0  0  0  0
   10.4019   -2.0659   -0.3319 N   0  0  0  0  0  0  0  0  0  0  0  0
   11.0661    1.2009    0.9577 N   0  0  0  0  0  0  0  0  0  0  0  0
   11.2489   -1.0343    0.0237 C   0  0  0  0  0  0  0  0  0  0  0  0
   12.3994    1.2424    0.7853 C   0  0  0  0  0  0  0  0  0  0  0  0
   12.6427   -0.8777   -0.0903 C   0  0  0  0  0  0  0  0  0  0  0  0
   12.8726    2.1753    1.0731 H   0  0  0  0  0  0  0  0  0  0  0  0
   13.2099    0.2910    0.2775 N   0  0  0  0  0  0  0  0  0  0  0  0
   13.4816   -1.8498   -0.6365 N   0  0  0  0  0  0  0  0  0  0  0  0
   14.2812   -1.4078   -1.0677 H   0  0  0  0  0  0  0  0  0  0  0  0
   12.9442   -2.4990   -1.2005 H   0  0  0  0  0  0  0  0  0  0  0  0
  2  1  1  0  0  0  0
  3  2  1  0  0  0  0
  3  6  1  0  0  0  0
  3  4  1  0  0  0  0
  5  8  1  0  0  0  0
  5  3  1  0  0  0  0
  5  7  1  0  0  0  0
  6 10  1  0  0  0  0
  6 12  1  0  0  0  0
  6 11  1  0  0  0  0
  8 12  1  0  0  0  0
  9  5  1  0  0  0  0
  9 14  1  0  0  0  0
  9 15  1  0  0  0  0
 12 29  1  0  0  0  0
 12 28  1  0  0  0  0
 13  9  1  0  0  0  0
 16 19  1  0  0  0  0
 16 17  1  0  0  0  0
 16 13  1  0  0  0  0
 17 20  1  0  0  0  0
 18 16  2  0  0  0  0
 20 23  1  0  0  0  0
 20 21  1  0  0  0  0
 20 22  2  0  0  0  0
 21 24  1  0  0  0  0
 24 26  1  0  0  0  0
 24 27  1  0  0  0  0
 24 25  2  0  0  0  0
 29 31  1  0  0  0  0
 29 30  1  0  0  0  0
 30 32  1  0  0  0  0
 31 34  2  0  0  0  0
 31 35  1  0  0  0  0
 33 30  2  0  0  0  0
 34 36  1  0  0  0  0
 35 33  1  0  0  0  0
 36 39  2  0  0  0  0
 36 38  1  0  0  0  0
 37 40  1  0  0  0  0
 37 35  2  0  0  0  0
 39 37  1  0  0  0  0
 40 41  1  0  0  0  0
 40 42  1  0  0  0  0
M  CHG  4  19  -1  23  -1  26  -1  27  -1
M  END
$$$$
