
 OpenBabel10102213403D

 42 44  0  0  1  0  0  0  0  0999 V2000
    5.2114    0.4707    2.9302 H   0  0  0  0  0  0  0  0  0  0  0  0
    6.0864    0.0018    2.9791 O   0  0  0  0  0  0  0  0  0  0  0  0
    6.6987    0.1488    1.7007 C   0  0  3  0  0  0  0  0  0  0  0  0
    6.5731    1.1746    1.3436 H   0  0  0  0  0  0  0  0  0  0  0  0
    6.2490   -0.9186    0.7040 C   0  0  3  0  0  0  0  0  0  0  0  0
    8.1491   -0.2553    1.8702 C   0  0  0  0  0  0  0  0  0  0  0  0
    6.6646   -0.6717   -0.2829 H   0  0  0  0  0  0  0  0  0  0  0  0
    6.9072   -2.1503    1.1109 O   0  0  0  0  0  0  0  0  0  0  0  0
    4.7496   -1.0966    0.5665 C   0  0  0  0  0  0  0  0  0  0  0  0
    8.6215    0.1591    2.7665 H   0  0  0  0  0  0  0  0  0  0  0  0
    8.7363    0.0446    0.9937 H   0  0  0  0  0  0  0  0  0  0  0  0
    8.0227   -1.7729    1.9529 C   0  0  3  0  0  0  0  0  0  0  0  0
    4.2159    0.0676   -0.0306 O   0  0  0  0  0  0  0  0  0  0  0  0
    4.5393   -1.9564   -0.0802 H   0  0  0  0  0  0  0  0  0  0  0  0
    4.2862   -1.3067    1.5301 H   0  0  0  0  0  0  0  0  0  0  0  0
    2.5062   -0.0405   -0.2719 P   0  0  3  0  0  0  0  0  0  0  0  0
    2.4341    1.1914    0.8677 O   0  0  0  0  0  0  0  0  0  0  0  0
    0.9760   -0.1372   -0.4878 O   0  0  0  0  0  0  0  0  0  0  0  0
    2.8307    0.4521   -1.7114 O   0  5  0  0  0  0  0  0  0  0  0  0
    1.9941    0.9554    2.4415 P   0  0  3  0  0  0  0  0  0  0  0  0
    2.8195    2.0780    3.3768 O   0  0  0  0  0  0  0  0  0  0  0  0
    0.4964    1.1772    2.6151 O   0  0  0  0  0  0  0  0  0  0  0  0
    2.5223   -0.4259    2.8545 O   0  5  0  0  0  0  0  0  0  0  0  0
    2.5764    3.7282    2.9179 P   0  0  0  0  0  0  0  0  0  0  0  0
    2.3589    5.2051    2.5071 O   0  0  0  0  0  0  0  0  0  0  0  0
    2.3514    4.0209    4.4385 O   0  5  0  0  0  0  0  0  0  0  0  0
    4.0692    3.7102    2.4575 O   0  5  0  0  0  0  0  0  0  0  0  0
    7.7965   -2.1059    2.9738 H   0  0  0  0  0  0  0  0  0  0  0  0
    9.1976   -2.5203    1.5274 N   0  0  0  0  0  0  0  0  0  0  0  0
    9.2284   -3.5102    0.5694 C   0  0  0  0  0  0  0  0  0  0  0  0
   10.4608   -2.4371    2.0546 C   0  0  0  0  0  0  0  0  0  0  0  0
    8.3484   -3.7814   -0.0013 H   0  0  0  0  0  0  0  0  0  0  0  0
   10.4233   -4.0594    0.4470 N   0  0  0  0  0  0  0  0  0  0  0  0
   10.9178   -1.6106    3.0086 N   0  0  0  0  0  0  0  0  0  0  0  0
   11.1937   -3.4015    1.3789 C   0  0  0  0  0  0  0  0  0  0  0  0
   12.2282   -1.8064    3.2395 C   0  0  0  0  0  0  0  0  0  0  0  0
   12.5460   -3.5321    1.7274 C   0  0  0  0  0  0  0  0  0  0  0  0
   12.6772   -1.1555    3.9845 H   0  0  0  0  0  0  0  0  0  0  0  0
   13.0641   -2.7065    2.6678 N   0  0  0  0  0  0  0  0  0  0  0  0
   13.4051   -4.4530    1.1230 N   0  0  0  0  0  0  0  0  0  0  0  0
   14.3557   -4.1112    1.1391 H   0  0  0  0  0  0  0  0  0  0  0  0
   13.0281   -4.7546    0.2279 H   0  0  0  0  0  0  0  0  0  0  0  0
  2  1  1  0  0  0  0
  3  2  1  0  0  0  0
  3  6  1  0  0  0  0
  3  4  1  0  0  0  0
  5  8  1  0  0  0  0
  5  3  1  0  0  0  0
  5  7  1  0  0  0  0
  6 12  1  0  0  0  0
  6 10  1  0  0  0  0
  6 11  1  0  0  0  0
  8 12  1  0  0  0  0
  9  5  1  0  0  0  0
  9 14  1  0  0  0  0
  9 15  1  0  0  0  0
 12 29  1  0  0  0  0
 12 28  1  0  0  0  0
 13  9  1  0  0  0  0
 16 19  1  0  0  0  0
 16 17  1  0  0  0  0
 16 13  1  0  0  0  0
 17 20  1  0  0  0  0
 18 16  2  0  0  0  0
 20 23  1  0  0  0  0
 20 21  1  0  0  0  0
 20 22  2  0  0  0  0
 21 24  1  0  0  0  0
 24 26  1  0  0  0  0
 24 27  1  0  0  0  0
 24 25  2  0  0  0  0
 29 31  1  0  0  0  0
 29 30  1  0  0  0  0
 30 32  1  0  0  0  0
 31 34  2  0  0  0  0
 31 35  1  0  0  0  0
 33 30  2  0  0  0  0
 34 36  1  0  0  0  0
 35 33  1  0  0  0  0
 36 39  2  0  0  0  0
 36 38  1  0  0  0  0
 37 40  1  0  0  0  0
 37 35  2  0  0  0  0
 39 37  1  0  0  0  0
 40 41  1  0  0  0  0
 40 42  1  0  0  0  0
M  CHG  4  19  -1  23  -1  26  -1  27  -1
M  END
$$$$
